/*--------------------------------*- C++ -*----------------------------------*\
| =========                 |                                                 |
| \\      /  F ield         | OpenFOAM: The Open Source CFD Toolbox           |
|  \\    /   O peration     | Version:  1.6                                   |
|   \\  /    A nd           | Web:      http://www.OpenFOAM.org               |
|    \\/     M anipulation  |                                                 |
\*---------------------------------------------------------------------------*/
FoamFile
{
    version     2.0;
    format      ascii;
    class       dictionary;
    object      blockMeshDict;
}
// * * * * * * * * * * * * * * * * * * * * * * * * * * * * * * * * * * * * * //

convertToMeters 1;

vertices
(
    (0 -0.5 0)
    (12.5663706144 -0.5 0)
    (0 0 0)
    (12.5663706144 0 0)
    (0 0.5 0)
    (12.5663706144 0.5 0)
    (0 -0.5 6.28318530718)
    (12.5663706144 -0.5 6.28318530718)
    (0 0 6.28318530718)
    (12.5663706144 0 6.28318530718)
    (0 0.5 6.28318530718)
    (12.5663706144 0.5 6.28318530718)
);

blocks
(
    hex (0 1 3 2 6 7 9 8) (256 128 192) simpleGrading (1 162.972616413 1)
    hex (2 3 5 4 8 9 11 10) (256 128 192) simpleGrading (1 0.00613600015763 1)
);

edges           
(
);

patches         
(
    wall bottomWall 
    (
        (0 1 7 6)
    )
    wall topWall 
    (
        (4 10 11 5)
    )
    cyclic sides1 
    (
        (0 2 3 1)
        (6 7 9 8)
    )
    cyclic sides2 
    (
        (2 4 5 3)
        (8 9 11 10)
    )
    cyclic inout1 
    (
        (0 6 8 2)
        (1 3 9 7)
    )
    cyclic inout2 
    (
        (2 8 10 4)
        (3 5 11 9)
    )
);

mergePatchPairs
(
);

// ************************************************************************* //
